setting '--memory' value to 180000.00 MB (keyword RESERVE_MEMOIRE)
copying 'C:\\Users\\user\\Desktop\\v2024\\Fish_cage\\asterinput\\fish_cage.unv' to 'fort.20'...
copying 'C:\\Users\\user\\Desktop\\v2024\\Fish_cage\\asterinput\\meshinfo.py' to 'fort.90'...
copying 'C:\\Users\\user\\Desktop\\v2024\\Fish_cage\\asterinput\\materials.py' to 'fort.91'...
copying 'C:\\Users\\user\\Desktop\\v2024\\Fish_cage\\asterinput\\aster_simulation2.py' to 'fort.93'...
Ouverture en écriture du fichier ./vola.1

<INFO> Démarrage de l'exécution.

                                                                                   
   ___         _         _       _            __      ___         _                
  / __|___  __| |___    /_\   __| |_ ___ _ _  \ \    / (_)_ _  __| |_____ __ _____ 
 | (__/ _ \/ _` / -_)  / _ \ (_-<  _/ -_) '_|  \ \/\/ /| | ' \/ _` / _ \ V  V (_-< 
  \___\___/\__,_\___| /_/ \_\/__/\__\___|_|     \_/\_/ |_|_||_\__,_\___/\_/\_//__/ 
                                                 https://code-aster-windows.com    
                       -- CODE_ASTER -- VERSION : DÉVELOPPEMENT (unstable) --                       
                               Version 17.2.18 modifiée le 08/05/2025                               
                          révision 15d5b0bcd8a8 - branche 'windows-compat'                          
                                   Copyright EDF R&D 1991 - 2026                                    
                                                                                                    
                              Exécution du : Tue Mar 24 15:38:05 2026                               
                                        Nom de la machine :                                         
                                          DESKTOP-SBNQGCA                                           
                                        Architecture : 64bit                                        
                                     Type de processeur : AMD64                                     
                                      Système d'exploitation :                                      
                                     Windows-10-10.0.26100-SP0                                      
                                  Langue des messages : ko (UTF-8)                                  
                                     Version de Python : 3.7.2                                      
                                     Version de NumPy : 1.16.1                                      
                                     Parallélisme MPI : inactif                                     
                                    Parallélisme OpenMP : actif                                     
                              Nombre de processus OpenMP utilisés : 8                               
                               Version de la librairie HDF5 : 1.10.9                                
                                Version de la librairie MED : 4.1.1                                 
                                 Librairie MFront : non disponible                                  
                               Version de la librairie MUMPS : 5.6.2                                
                                  Librairie PETSc : non disponible                                  
                               Version de la librairie SCOTCH : 7.0.3                               

starting the execution...
Valeur initiale du temps CPU maximum =   99999999 secondes
  Valeur du temps CPU maximum passé aux
commandes =   89999999 secondes
  Réserve CPU prévue = 9999999 secondes

Ouverture en écriture du fichier ./glob.1

Ouverture en écriture du fichier ./vola.1

Ouverture en lecture du fichier
C:\Users\user\AppData\Local\code_aster\v2024\17.2\bin\..\lib\aster/elem.1

Nom de la base                          :  ELEMBASE
     Créée avec la version                   : 
17.02.18
     Nombre d'enregistrements utilisés       :  46
     Nombre d'enregistrements maximum   
    :  512
     Nombre d'enregistrements par fichier    :  512
     Longueur d'enregistrement
(octets)      :  819200
     Nombre d'identificateurs utilisés       :  123
     Taille maximum du
répertoire            :  300
     Pourcentage d'utilisation du répertoire :  41 %

Ouverture en lecture du fichier
C:\Users\user\AppData\Local\code_aster\v2024\17.2\bin\..\lib\aster/elem.1

Nom de la base                          :  ELEMBASE
     Nombre d'enregistrements utilisés       : 
46
     Nombre d'enregistrements maximum        :  512
     Nombre d'enregistrements par fichier   
:  512
     Longueur d'enregistrement (octets)      :  819200
     Nombre total d'accès en lecture  
      :  64
     Volume des accès en lecture             :         50.00 Mo.
     Nombre total
d'accès en écriture        :  0
     Volume des accès en écriture            :          0.00 Mo.
   
 Nombre d'identificateurs utilisés       :  123
     Taille maximum du répertoire            :  300

    Pourcentage d'utilisation du répertoire :  41 %

Relecture des catalogues des éléments faite.

Fin de lecture (durée  0.000000  s.) 

                     Mémoire limite pour l'allocation dynamique : 180512.00 Mo                      
                              ajouté à l'initialisation du processus :                              
                                             278.72 Mo                                              
                              Limite cible du processus : 180790.72 Mo                              
                         Taille limite des fichiers d'échange : 2048.00 Go                          
C:\Users\user\Desktop\v2024\Fish_cage\asterinput\aster_simulation1.py:27: DeprecationWarning: This feature is obsolete, 'PAR_LOT' has been removed.
  
# Mémoire (Mo) :   278.72 /   271.05 /   210.15 /   185.10 (VmPeak / VmSize / Optimum / Minimum)
# Fin commande #0001   user+syst:        0.03s (syst:        0.06s, elaps:        0.00s)
# ----------------------------------------------------------------------------------------------

.. _stg1_txt30
# ----------------------------------------------------------------------------------------------
# Commande #0002 de aster_simulation1.py.changed.py, ligne 30
INCLUDE(ALARME='OUI',
        INFO=1,
        UNITE=90)

# Mémoire (Mo) :   287.22 /   272.42 /   210.15 /   185.10 (VmPeak / VmSize / Optimum / Minimum)
# Fin commande #0002   user+syst:        0.00s (syst:        0.02s, elaps:        0.00s)
# ----------------------------------------------------------------------------------------------

.. _stg1_txt31
# ----------------------------------------------------------------------------------------------
# Commande #0003 de aster_simulation1.py.changed.py, ligne 31
INCLUDE(ALARME='OUI',
        INFO=1,
        UNITE=91)

# Mémoire (Mo) :   287.22 /   272.42 /   210.15 /   185.10 (VmPeak / VmSize / Optimum / Minimum)
# Fin commande #0003   user+syst:        0.00s (syst:        0.00s, elaps:        0.00s)
# ----------------------------------------------------------------------------------------------

.. _stg1_txt179
# ----------------------------------------------------------------------------------------------
# Commande #0004 de aster_simulation1.py.changed.py, ligne 179
mesh = LIRE_MAILLAGE(CREA_GROUP_COUL='NON',
                     FORMAT='IDEAS',
                     INFO=1,
                     UNITE=20,
                     VERI_MAIL=_F(APLAT=0.001,
                                  VERIF='OUI'))

 ON NE TRAITE PAS LE DATASET:                  164
 NOMBRE DE NOEUDS :                 1353
 NOMBRE DE MAILLES :                 2588
Vérification du maillage.


 ╔════════════════════════════════════════════════════════════════════════════════════════════════╗
 ║ <A> <MODELISA8_13>                                                                             ║
 ║                                                                                                ║
 ║ Les mailles 1537 et 817 sont doubles (même noeuds en support).                                 ║
 ║     Type de maille : SEG2                                                                      ║
 ║                                                                                                ║
 ║                                                                                                ║
 ║ Ceci est une alarme. Si vous ne comprenez pas le sens de cette                                 ║
 ║ alarme, vous pouvez obtenir des                                                                ║
 ║ résultats inattendus !                                                                         ║
 ╚════════════════════════════════════════════════════════════════════════════════════════════════╝


 ╔════════════════════════════════════════════════════════════════════════════════════════════════╗
 ║ <A> <MODELISA8_13>                                                                             ║
 ║                                                                                                ║
 ║ Les mailles 1538 et 818 sont doubles (même noeuds en support).                                 ║
 ║     Type de maille : SEG2                                                                      ║
 ║                                                                                                ║
 ║                                                                                                ║
 ║ Ceci est une alarme. Si vous ne comprenez pas le sens de cette                                 ║
 ║ alarme, vous pouvez obtenir des                                                                ║
 ║ résultats inattendus !                                                                         ║
 ╚════════════════════════════════════════════════════════════════════════════════════════════════╝


 ╔════════════════════════════════════════════════════════════════════════════════════════════════╗
 ║ <A> <MODELISA8_13>                                                                             ║
 ║                                                                                                ║
 ║ Les mailles 1539 et 819 sont doubles (même noeuds en support).                                 ║
 ║     Type de maille : SEG2                                                                      ║
 ║                                                                                                ║
 ║                                                                                                ║
 ║ Ceci est une alarme. Si vous ne comprenez pas le sens de cette                                 ║
 ║ alarme, vous pouvez obtenir des                                                                ║
 ║ résultats inattendus !                                                                         ║
 ╚════════════════════════════════════════════════════════════════════════════════════════════════╝


 ╔════════════════════════════════════════════════════════════════════════════════════════════════╗
 ║ <A> <MODELISA8_13>                                                                             ║
 ║                                                                                                ║
 ║ Les mailles 1540 et 820 sont doubles (même noeuds en support).                                 ║
 ║     Type de maille : SEG2                                                                      ║
 ║                                                                                                ║
 ║                                                                                                ║
 ║ Ceci est une alarme. Si vous ne comprenez pas le sens de cette                                 ║
 ║ alarme, vous pouvez obtenir des                                                                ║
 ║ résultats inattendus !                                                                         ║
 ╚════════════════════════════════════════════════════════════════════════════════════════════════╝


 ╔════════════════════════════════════════════════════════════════════════════════════════════════╗
 ║ <A> <MODELISA8_13>                                                                             ║
 ║                                                                                                ║
 ║ Les mailles 1541 et 821 sont doubles (même noeuds en support).                                 ║
 ║     Type de maille : SEG2                                                                      ║
 ║                                                                                                ║
 ║                                                                                                ║
 ║ Ceci est une alarme. Si vous ne comprenez pas le sens de cette                                 ║
 ║ alarme, vous pouvez obtenir des                                                                ║
 ║ résultats inattendus !                                                                         ║
 ╚════════════════════════════════════════════════════════════════════════════════════════════════╝


 ╔════════════════════════════════════════════════════════════════════════════════════════════════╗
 ║ <A> <CATAMESS_41>                                                                              ║
 ║                                                                                                ║
 ║ Le message d'alarme 'MODELISA8_13' a été émis 5 fois, il ne sera plus affiché.                 ║
 ║                                                                                                ║
 ║                                                                                                ║
 ║ Ceci est une alarme. Si vous ne comprenez pas le sens de cette                                 ║
 ║ alarme, vous pouvez obtenir des                                                                ║
 ║ résultats inattendus !                                                                         ║
 ╚════════════════════════════════════════════════════════════════════════════════════════════════╝


 ╔════════════════════════════════════════════════════════════════════════════════════════════════╗
 ║ <A> <MODELISA4_8>                                                                              ║
 ║                                                                                                ║
 ║ -> Phase de vérification du maillage : présence de mailles doubles (ou triples, ...)           ║
 ║      Les                                                                                       ║
 ║ mailles multiples sont des mailles de noms différents qui ont la même connectivité             ║
 ║      (elles                                                                                    ║
 ║ s'appuient sur les mêmes noeuds).                                                              ║
 ║                                                                                                ║
 ║   -> Risque & Conseil :                                                                        ║
 ║      Le risque est de modéliser 2                                                              ║
 ║ fois (ou plus) l'espace. On peut par exemple avoir                                             ║
 ║      un modèle 2 fois trop lourd ou 2 fois                                                     ║
 ║ trop rigide.                                                                                   ║
 ║      Remarque : les mailles concernées sont imprimées dans le fichier "message".               ║
 ║                                                                                                ║
 ║     Sur ce maillage, il est imprudent d'affecter des quantités avec le mot clé TOUT='OUI'.     ║
 ║                                                                                                ║
 ║                                                                                                ║
 ║ Ceci est une alarme. Si vous ne comprenez pas le sens de cette                                 ║
 ║ alarme, vous pouvez obtenir des                                                                ║
 ║ résultats inattendus !                                                                         ║
 ╚════════════════════════════════════════════════════════════════════════════════════════════════╝


------------ MAILLAGE 00000001 - IMPRESSIONS NIVEAU  1 ------------

         AUTEUR=INTERFACE_IDEAS                 DATE=24/03/2026                 

NOMBRE DE NOEUDS                        1353

NOMBRE DE MAILLES                       2588
                              SEG2                 2588

NOMBRE DE GROUPES DE NOEUDS             1362

NOMBRE DE GROUPES DE MAILLES              10

--------------------------------------------------------------------------------

# Résultat commande #0004 (LIRE_MAILLAGE): mesh ('<00000001>') de type <Mesh>
# Mémoire (Mo) :   287.22 /   275.14 /   210.15 /   185.10 (VmPeak / VmSize / Optimum / Minimum)
# Fin commande #0004   user+syst:        0.11s (syst:        0.00s, elaps:        0.00s)
# ----------------------------------------------------------------------------------------------

.. _stg1_txt217
# ----------------------------------------------------------------------------------------------
# Commande #0008 de aster_simulation1.py.changed.py, ligne 217
model = AFFE_MODELE(AFFE=(_F(GROUP_MA=('NETTWIN', 'SIDEROPE', 'BUOYLN1', 'ANCHL1', 'BRIDLE', 'ANCHL2', 'MOORFRM'),
                             MODELISATION='CABLE',
                             PHENOMENE='MECANIQUE'),
                          _F(GROUP_MA=('FLOATER', 'BRACKET', 'BOTRING'),
                             MODELISATION='POU_D_E',
                             PHENOMENE='MECANIQUE')),
                    DISTRIBUTION=_F(METHODE='SOUS_DOMAINE',
                                    PARTITIONNEUR='METIS'),
                    INFO=1,
                    MAILLAGE=mesh,
                    VERI_JACOBIEN='OUI',
                    VERI_NORM_IFS='OUI',
                    VERI_PLAN='OUI')

Sur les 2588 mailles du maillage 00000001, on a demandé l'affectation de 2588, on a pu en affecter
2588.
Modélisation     Formulation      Type maille  Élément fini     Nombre
CABLE            _                SEG2         MECABL2          2468
POU_D_E          _                SEG2         MECA_POU_D_E     120
#2      Calculs elementaires et assemblages               CPU (USER+SYST/SYST/ELAPS):      0.00      0.00      0.00
# Résultat commande #0008 (AFFE_MODELE): model ('<00000002>') de type <Model>
# Mémoire (Mo) :   287.22 /   276.65 /   210.15 /   198.65 (VmPeak / VmSize / Optimum / Minimum)
# Fin commande #0008   user+syst:        0.00s (syst:        0.00s, elaps:        0.00s)
# ----------------------------------------------------------------------------------------------

.. _stg1_txt286
# ----------------------------------------------------------------------------------------------
# Commande #0009 de aster_simulation1.py.changed.py, ligne 286
elemprop = AFFE_CARA_ELEM(CABLE=(_F(GROUP_MA='NETTWIN',
                                    N_INIT=10.0,
                                    SECTION=0.0012566370614359172),
                                 _F(GROUP_MA='BUOYLN1',
                                    N_INIT=10.0,
                                    SECTION=0.0063617251235193305),
                                 _F(GROUP_MA='ANCHL1',
                                    N_INIT=10.0,
                                    SECTION=0.12566370614359174),
                                 _F(GROUP_MA='BRIDLE',
                                    N_INIT=10.0,
                                    SECTION=0.031415926535897934),
                                 _F(GROUP_MA='ANCHL2',
                                    N_INIT=10.0,
                                    SECTION=0.12566370614359174),
                                 _F(GROUP_MA='MOORFRM',
                                    N_INIT=10.0,
                                    SECTION=0.12566370614359174),
                                 _F(GROUP_MA='SIDEROPE',
                                    N_INIT=10.0,
                                    SECTION=0.0063617251235193305)),
                          INFO=1,
                          MODELE=model,
                          POUTRE=(_F(CARA=('R', 'EP'),
                                     GROUP_MA='FLOATER',
                                     MODI_METRIQUE='NON',
                                     SECTION='CERCLE',
                                     TUYAU_NCOU=3,
                                     TUYAU_NSEC=16,
                                     VALE=(0.35, 0.2),
                                     VARI_SECT='CONSTANT'),
                                  _F(CARA='R',
                                     GROUP_MA='BOTRING',
                                     MODI_METRIQUE='NON',
                                     SECTION='CERCLE',
                                     TUYAU_NCOU=3,
                                     TUYAU_NSEC=16,
                                     VALE=0.1,
                                     VARI_SECT='CONSTANT'),
                                  _F(CARA='R',
                                     GROUP_MA='BRACKET',
                                     MODI_METRIQUE='NON',
                                     SECTION='CERCLE',
                                     TUYAU_NCOU=3,
                                     TUYAU_NSEC=16,
                                     VALE=0.2,
                                     VARI_SECT='CONSTANT')))


     LE MODELE 00000002 CONTIENT : 
                                      120 ELEMENT(S) POUTRE          
                                     2468 ELEMENT(S) CABLE           
#2      Calculs elementaires et assemblages               CPU (USER+SYST/SYST/ELAPS):      0.00      0.00      0.00
# Résultat commande #0009 (AFFE_CARA_ELEM): elemprop ('<00000003>') de type
<ElementaryCharacteristics>
# Dépend de :
# - model ('<00000002>') de type <Model>
# Mémoire (Mo) :   287.22 /   278.92 /   210.15 /   198.65 (VmPeak / VmSize / Optimum / Minimum)
# Fin commande #0009   user+syst:        0.02s (syst:        0.00s, elaps:        0.00s)
# ----------------------------------------------------------------------------------------------

.. _stg1_txt345
# ----------------------------------------------------------------------------------------------
# Commande #0010 de aster_simulation1.py.changed.py, ligne 345
net = DEFI_MATERIAU(CABLE=_F(EC_SUR_E=0.0001),
                    ELAS=_F(B_ENDOGE=0.0,
                            COEF_AMOR=1.0,
                            E=1000000000.0,
                            K_DESSIC=0.0,
                            NU=0.3,
                            RHO=1150.0),
                    INFO=1)

# Résultat commande #0010 (DEFI_MATERIAU): net ('<00000004>') de type <Material>
# Mémoire (Mo) :   287.22 /   279.08 /   210.15 /   198.65 (VmPeak / VmSize / Optimum / Minimum)
# Fin commande #0010   user+syst:        0.00s (syst:        0.00s, elaps:        0.00s)
# ----------------------------------------------------------------------------------------------

.. _stg1_txt354
# ----------------------------------------------------------------------------------------------
# Commande #0011 de aster_simulation1.py.changed.py, ligne 354
buoyline = DEFI_MATERIAU(CABLE=_F(EC_SUR_E=0.0001),
                         ELAS=_F(B_ENDOGE=0.0,
                                 COEF_AMOR=1.0,
                                 E=100000000000.0,
                                 K_DESSIC=0.0,
                                 NU=0.3,
                                 RHO=980.0),
                         INFO=1)

# Résultat commande #0011 (DEFI_MATERIAU): buoyline ('<00000005>') de type <Material>
# Mémoire (Mo) :   287.22 /   279.08 /   210.15 /   198.65 (VmPeak / VmSize / Optimum / Minimum)
# Fin commande #0011   user+syst:        0.02s (syst:        0.00s, elaps:        0.00s)
# ----------------------------------------------------------------------------------------------

.. _stg1_txt363
# ----------------------------------------------------------------------------------------------
# Commande #0012 de aster_simulation1.py.changed.py, ligne 363
anchorline1 = DEFI_MATERIAU(CABLE=_F(EC_SUR_E=0.0001),
                            ELAS=_F(B_ENDOGE=0.0,
                                    COEF_AMOR=1.0,
                                    E=100000000000.0,
                                    K_DESSIC=0.0,
                                    NU=0.3,
                                    RHO=980.0),
                            INFO=1)

# Résultat commande #0012 (DEFI_MATERIAU): anchorline1 ('<00000006>') de type <Material>
# Mémoire (Mo) :   287.22 /   279.08 /   210.15 /   198.65 (VmPeak / VmSize / Optimum / Minimum)
# Fin commande #0012   user+syst:        0.02s (syst:        0.00s, elaps:        0.00s)
# ----------------------------------------------------------------------------------------------

.. _stg1_txt372
# ----------------------------------------------------------------------------------------------
# Commande #0013 de aster_simulation1.py.changed.py, ligne 372
anchorline2 = DEFI_MATERIAU(CABLE=_F(EC_SUR_E=0.0001),
                            ELAS=_F(B_ENDOGE=0.0,
                                    COEF_AMOR=1.0,
                                    E=100000000000.0,
                                    K_DESSIC=0.0,
                                    NU=0.3,
                                    RHO=980.0),
                            INFO=1)

# Résultat commande #0013 (DEFI_MATERIAU): anchorline2 ('<00000007>') de type <Material>
# Mémoire (Mo) :   287.22 /   279.08 /   210.15 /   198.65 (VmPeak / VmSize / Optimum / Minimum)
# Fin commande #0013   user+syst:        0.00s (syst:        0.00s, elaps:        0.00s)
# ----------------------------------------------------------------------------------------------

.. _stg1_txt381
# ----------------------------------------------------------------------------------------------
# Commande #0014 de aster_simulation1.py.changed.py, ligne 381
bridle = DEFI_MATERIAU(CABLE=_F(EC_SUR_E=0.0001),
                       ELAS=_F(B_ENDOGE=0.0,
                               COEF_AMOR=1.0,
                               E=100000000000.0,
                               K_DESSIC=0.0,
                               NU=0.3,
                               RHO=980.0),
                       INFO=1)

# Résultat commande #0014 (DEFI_MATERIAU): bridle ('<00000008>') de type <Material>
# Mémoire (Mo) :   287.22 /   279.08 /   210.15 /   198.65 (VmPeak / VmSize / Optimum / Minimum)
# Fin commande #0014   user+syst:        0.02s (syst:        0.00s, elaps:        0.00s)
# ----------------------------------------------------------------------------------------------

.. _stg1_txt390
# ----------------------------------------------------------------------------------------------
# Commande #0015 de aster_simulation1.py.changed.py, ligne 390
mooringframe = DEFI_MATERIAU(CABLE=_F(EC_SUR_E=0.0001),
                             ELAS=_F(B_ENDOGE=0.0,
                                     COEF_AMOR=1.0,
                                     E=100000000000.0,
                                     K_DESSIC=0.0,
                                     NU=0.3,
                                     RHO=980.0),
                             INFO=1)

# Résultat commande #0015 (DEFI_MATERIAU): mooringframe ('<00000009>') de type <Material>
# Mémoire (Mo) :   287.22 /   279.08 /   210.15 /   198.65 (VmPeak / VmSize / Optimum / Minimum)
# Fin commande #0015   user+syst:        0.02s (syst:        0.00s, elaps:        0.00s)
# ----------------------------------------------------------------------------------------------

.. _stg1_txt399
# ----------------------------------------------------------------------------------------------
# Commande #0016 de aster_simulation1.py.changed.py, ligne 399
siderope = DEFI_MATERIAU(CABLE=_F(EC_SUR_E=0.0001),
                         ELAS=_F(B_ENDOGE=0.0,
                                 COEF_AMOR=1.0,
                                 E=100000000000.0,
                                 K_DESSIC=0.0,
                                 NU=0.3,
                                 RHO=980.0),
                         INFO=1)

# Résultat commande #0016 (DEFI_MATERIAU): siderope ('<0000000a>') de type <Material>
# Mémoire (Mo) :   287.22 /   279.08 /   210.15 /   198.65 (VmPeak / VmSize / Optimum / Minimum)
# Fin commande #0016   user+syst:        0.02s (syst:        0.00s, elaps:        0.00s)
# ----------------------------------------------------------------------------------------------

.. _stg1_txt408
# ----------------------------------------------------------------------------------------------
# Commande #0017 de aster_simulation1.py.changed.py, ligne 408
floater = DEFI_MATERIAU(ELAS=_F(B_ENDOGE=0.0,
                                COEF_AMOR=1.0,
                                E=1000000000.0,
                                K_DESSIC=0.0,
                                NU=0.3,
                                RHO=950.0),
                        INFO=1)

# Résultat commande #0017 (DEFI_MATERIAU): floater ('<0000000b>') de type <Material>
# Mémoire (Mo) :   287.22 /   279.08 /   210.15 /   198.65 (VmPeak / VmSize / Optimum / Minimum)
# Fin commande #0017   user+syst:        0.00s (syst:        0.00s, elaps:        0.00s)
# ----------------------------------------------------------------------------------------------

.. _stg1_txt416
# ----------------------------------------------------------------------------------------------
# Commande #0018 de aster_simulation1.py.changed.py, ligne 416
braket = DEFI_MATERIAU(ELAS=_F(B_ENDOGE=0.0,
                               COEF_AMOR=1.0,
                               E=100000000000.0,
                               K_DESSIC=0.0,
                               NU=0.3,
                               RHO=980.0),
                       INFO=1)

# Résultat commande #0018 (DEFI_MATERIAU): braket ('<0000000c>') de type <Material>
# Mémoire (Mo) :   287.22 /   279.08 /   210.15 /   198.65 (VmPeak / VmSize / Optimum / Minimum)
# Fin commande #0018   user+syst:        0.02s (syst:        0.00s, elaps:        0.00s)
# ----------------------------------------------------------------------------------------------

.. _stg1_txt425
# ----------------------------------------------------------------------------------------------
# Commande #0019 de aster_simulation1.py.changed.py, ligne 425
bottomring = DEFI_MATERIAU(ELAS=_F(B_ENDOGE=0.0,
                                   COEF_AMOR=1.0,
                                   E=200000000000.0,
                                   K_DESSIC=0.0,
                                   NU=0.3,
                                   RHO=8000.0),
                           INFO=1)

# Résultat commande #0019 (DEFI_MATERIAU): bottomring ('<0000000d>') de type <Material>
# Mémoire (Mo) :   287.22 /   279.08 /   210.15 /   198.65 (VmPeak / VmSize / Optimum / Minimum)
# Fin commande #0019   user+syst:        0.02s (syst:        0.00s, elaps:        0.00s)
# ----------------------------------------------------------------------------------------------

.. _stg1_txt452
# ----------------------------------------------------------------------------------------------
# Commande #0020 de aster_simulation1.py.changed.py, ligne 452
fieldmat = AFFE_MATERIAU(AFFE=(_F(GROUP_MA='NETTWIN',
                                  MATER=net),
                               _F(GROUP_MA='FLOATER',
                                  MATER=floater),
                               _F(GROUP_MA='BRACKET',
                                  MATER=braket),
                               _F(GROUP_MA='BOTRING',
                                  MATER=bottomring),
                               _F(GROUP_MA='MOORFRM',
                                  MATER=mooringframe),
                               _F(GROUP_MA='BRIDLE',
                                  MATER=bridle),
                               _F(GROUP_MA='SIDEROPE',
                                  MATER=siderope),
                               _F(GROUP_MA='BUOYLN1',
                                  MATER=buoyline),
                               _F(GROUP_MA='ANCHL1',
                                  MATER=anchorline1),
                               _F(GROUP_MA='ANCHL2',
                                  MATER=anchorline2)),
                         INFO=1,
                         MODELE=model)

# Résultat commande #0020 (AFFE_MATERIAU): fieldmat ('<0000000e>') de type <MaterialField>
# Mémoire (Mo) :   287.22 /   279.22 /   210.15 /   198.65 (VmPeak / VmSize / Optimum / Minimum)
# Fin commande #0020   user+syst:        0.02s (syst:        0.00s, elaps:        0.00s)
# ----------------------------------------------------------------------------------------------
C:\Users\user\Desktop\v2024\Fish_cage\asterinput\aster_simulation1.py:499: DeprecationWarning: This feature has a new implementation, "DLL_IMPO/LIAISON='ENCASTRE'" will be removed in the future. Use BLOCAGE = ('DEPLACEMENT', 'ROTATION')
  ]

.. _stg1_txt499
# ----------------------------------------------------------------------------------------------
# Commande #0021 de aster_simulation1.py.changed.py, ligne 499
fixed = AFFE_CHAR_MECA(DDL_IMPO=_F(BLOCAGE=('DEPLACEMENT', 'ROTATION'),
                                   GROUP_NO='ANCHORN'),
                       DOUBLE_LAGRANGE='OUI',
                       INFO=1,
                       MODELE=model,
                       SYNTAXE='NON',
                       VERI_AFFE='OUI',
                       VERI_NORM='OUI')

# Résultat commande #0021 (AFFE_CHAR_MECA): fixed ('<0000000f>') de type <MechanicalLoadReal>
# Mémoire (Mo) :   287.22 /   279.58 /   210.15 /   198.65 (VmPeak / VmSize / Optimum / Minimum)
# Fin commande #0021   user+syst:        0.00s (syst:        0.00s, elaps:        0.00s)
# ----------------------------------------------------------------------------------------------

.. _stg1_txt525
# ----------------------------------------------------------------------------------------------
# Commande #0022 de aster_simulation1.py.changed.py, ligne 525
sinkF1 = AFFE_CHAR_MECA(DOUBLE_LAGRANGE='OUI',
                        FORCE_NODALE=_F(FX=0,
                                        FY=0,
                                        FZ=-1960.0000000000002,
                                        GROUP_NO='BOTNCEN'),
                        INFO=1,
                        MODELE=model,
                        SYNTAXE='NON',
                        VERI_AFFE='OUI',
                        VERI_NORM='OUI')

# Résultat commande #0022 (AFFE_CHAR_MECA): sinkF1 ('<00000010>') de type <MechanicalLoadReal>
# Mémoire (Mo) :   287.22 /   279.59 /   210.15 /   198.65 (VmPeak / VmSize / Optimum / Minimum)
# Fin commande #0022   user+syst:        0.00s (syst:        0.00s, elaps:        0.00s)
# ----------------------------------------------------------------------------------------------

.. _stg1_txt550
# ----------------------------------------------------------------------------------------------
# Commande #0023 de aster_simulation1.py.changed.py, ligne 550
sinkF2 = AFFE_CHAR_MECA(DOUBLE_LAGRANGE='OUI',
                        FORCE_NODALE=_F(FX=0,
                                        FY=0,
                                        FZ=0,
                                        GROUP_NO='BRNODE'),
                        INFO=1,
                        MODELE=model,
                        SYNTAXE='NON',
                        VERI_AFFE='OUI',
                        VERI_NORM='OUI')

# Résultat commande #0023 (AFFE_CHAR_MECA): sinkF2 ('<00000011>') de type <MechanicalLoadReal>
# Mémoire (Mo) :   287.22 /   279.70 /   210.15 /   198.65 (VmPeak / VmSize / Optimum / Minimum)
# Fin commande #0023   user+syst:        0.02s (syst:        0.00s, elaps:        0.00s)
# ----------------------------------------------------------------------------------------------

.. _stg1_txt567
# ----------------------------------------------------------------------------------------------
# Commande #0024 de aster_simulation1.py.changed.py, ligne 567
sinkF3 = AFFE_CHAR_MECA(DOUBLE_LAGRANGE='OUI',
                        FORCE_NODALE=_F(FX=0,
                                        FY=0,
                                        FZ=400,
                                        GROUP_NO='BUOY1'),
                        INFO=1,
                        MODELE=model,
                        SYNTAXE='NON',
                        VERI_AFFE='OUI',
                        VERI_NORM='OUI')

# Résultat commande #0024 (AFFE_CHAR_MECA): sinkF3 ('<00000012>') de type <MechanicalLoadReal>
# Mémoire (Mo) :   287.22 /   279.80 /   210.15 /   198.65 (VmPeak / VmSize / Optimum / Minimum)
# Fin commande #0024   user+syst:        0.00s (syst:        0.00s, elaps:        0.00s)
# ----------------------------------------------------------------------------------------------

.. _stg1_txt571
# ----------------------------------------------------------------------------------------------
# Commande #0025 de aster_simulation1.py.changed.py, ligne 571
listr = DEFI_LIST_REEL(DEBUT=0.0,
                       INFO=1,
                       INTERVALLE=_F(JUSQU_A=100.0,
                                     PAS=0.01))

# Résultat commande #0025 (DEFI_LIST_REEL): listr ('<00000013>') de type <ListOfFloats>
# Mémoire (Mo) :   287.22 /   279.88 /   210.15 /   198.65 (VmPeak / VmSize / Optimum / Minimum)
# Fin commande #0025   user+syst:        0.00s (syst:        0.00s, elaps:        0.00s)
# ----------------------------------------------------------------------------------------------

.. _stg1_txt574
# ----------------------------------------------------------------------------------------------
# Commande #0026 de aster_simulation1.py.changed.py, ligne 574
times = DEFI_LIST_INST(ADAPTATION=_F(CRIT_COMP='LE',
                                     EVENEMENT='SEUIL',
                                     MODE_CALCUL_TPLUS='FIXE',
                                     NB_INCR_SEUIL=2,
                                     NOM_PARA='NB_ITER_NEWTON',
                                     PCENT_AUGM=100.0),
                       DEFI_LIST=_F(LIST_INST=listr,
                                    NB_PAS_MAXI=1000000,
                                    PAS_MINI=1e-08),
                       ECHEC=_F(ACTION='DECOUPE',
                                EVENEMENT='ERREUR',
                                SUBD_METHODE='MANUEL',
                                SUBD_NIVEAU=3,
                                SUBD_PAS=4,
                                SUBD_PAS_MINI=0.0),
                       INFO=1,
                       METHODE='AUTO')

Gestion automatique de la liste d'instants.
Paramètres de la gestion automatique de la liste d'instants.
Pas minimum:         1E-08
Pas maximum:
          100
Nombre de pas maximum: 1000000

La liste d'instants contient 10001 pas de temps et le pas de temps minimum vaut          0.01.
Il y a 1 événements.
L'événement 1 est pour capturer les erreurs.
Si cet événement se déclenche, on découpe le pas de temps.
La découpe du pas de temps est manuelle.
On découpe le pas de temps en 4 incréments jusqu'à ce que le niveau atteigne 3.
Il y a 1 schémas d'adaptations du pas de temps.
Le schéma d'adaptation 1 du pas de temps se déclenche pour un seuil donné.
Le seuil est franchi quand, 2 fois de suite, on fait exactement ou moins de 0 itérations de Newton.
Le mode de calcul de l'instant suivant est fixe.
Le pas de temps suivant sera modifié de 100.00 %.
# Résultat commande #0026 (DEFI_LIST_INST): times ('<00000014>') de type <TimesList>
# Dépend de :
# - listr ('<00000013>') de type <ListOfFloats>
# Mémoire (Mo) :   287.22 /   280.48 /   210.15 /   198.65 (VmPeak / VmSize / Optimum / Minimum)
# Fin commande #0026   user+syst:        0.00s (syst:        0.00s, elaps:        0.00s)
# ----------------------------------------------------------------------------------------------

.. _stg1_txt577
# ----------------------------------------------------------------------------------------------
# Commande #0027 de aster_simulation1.py.changed.py, ligne 577
INCLUDE(ALARME='OUI',
        INFO=0,
        UNITE=93)

Liste des comportements

Affecté sur 2468 éléments
Relation                             : CABLE
Déformation                          : GROT_GDEP
Pas de régularisation visqueuse
Pas de post-traitement à la fin du pas de temps
Nombre total de variables internes   : 1
V1 : VIDE
Affecté sur 120 éléments
Relation                             : ELAS
Déformation                          : PETIT
Pas de régularisation visqueuse
Pas de post-traitement à la fin du pas de temps
Nombre total de variables internes   : 1
V1 : VIDE
Le système linéaire à résoudre a 4395 degrés de liberté:
   - 4347 sont des degrés de liberté
physiques
     (ils sont portés par 1353 noeuds du maillage)
   - 48 sont les couples de paramètres
de Lagrange associés
     aux 24 relations linéaires dualisées.
La matrice est de taille 4395 équations.
  Elle contient 34038 termes non nuls si elle est
symétrique et 63681 termes non nuls si elle n'est pas symétrique.
  Soit un taux de remplissage de  
0.330 %.

 ╔════════════════════════════════════════════════════════════════════════════════════════════════╗
 ║ <A> <MECANONLINE5_21>                                                                          ║
 ║                                                                                                ║
 ║ -> Critère de convergence est lâche !                                                          ║
 ║   -> Risque & Conseil : La valeur de RESI_GLOB_RELA est                                        ║
 ║ supérieure à 10-4.                                                                             ║
 ║      Cela peut nuire à la qualité de la solution. Vous ne vérifiez pas                         ║
 ║ l'équilibre de                                                                                 ║
 ║      manière rigoureuse.                                                                       ║
 ║                                                                                                ║
 ║                                                                                                ║
 ║ Ceci est une alarme. Si vous ne comprenez pas le sens de cette                                 ║
 ║ alarme, vous pouvez obtenir des                                                                ║
 ║ résultats inattendus !                                                                         ║
 ╚════════════════════════════════════════════════════════════════════════════════════════════════╝

Il n'y a pas d'état initial défini. On prend un état initial nul.
Le champ <DEPL> est initialisé a zéro
Le champ <SIEF_ELGA> est initialisé a zéro
Le champ <VARI_ELGA> est initialisé a zéro
Le champ <VITE> est initialisé a zéro
Le champ <ACCE> est initialisé a zéro
Le champ <STRX_ELGA> est initialisé a zéro
On suppose qu'on part d'un état a vitesses nulles

On estime une accélération initiale.

L'état initial n'a pas d'accélération donnée.
 On la calcule.
 
Observations: il y aura, au maximum, 4059 observations à chaque instant sélectionné pour cela.

Archivage de l'état initial
Archivage des champs

Champ stocké <DEPL> à l'instant  0.000000000000e+00 pour le numéro d'ordre 0
Champ stocké <SIEF_ELGA> à l'instant  0.000000000000e+00 pour le numéro d'ordre 0
Champ stocké <VARI_ELGA> à l'instant  0.000000000000e+00 pour le numéro d'ordre 0
Champ stocké <COMPORTEMENT> à l'instant  0.000000000000e+00 pour le numéro d'ordre 0
Champ stocké <VITE> à l'instant  0.000000000000e+00 pour le numéro d'ordre 0
Champ stocké <ACCE> à l'instant  0.000000000000e+00 pour le numéro d'ordre 0
Champ stocké <STRX_ELGA> à l'instant  0.000000000000e+00 pour le numéro d'ordre 0
---------------------------------------------------------------------
Instant de calcul:  1.000000000000e-02

---------------------------------------------------------------------
|     NEWTON     |     RESIDU     |     RESIDU     |     OPTION     |
|    ITERATION   |     RELATIF    |     ABSOLU     |   ASSEMBLAGE   |
|                | RESI_GLOB_RELA | RESI_GLOB_MAXI |(+ TYPE MATRICE)|
---------------------------------------------------------------------
|     0        X | 5.23239E-02  X | 1.22515E+02    |TANGENTE   (SYM)|
|     1        X | 2.50732E-03  X | 6.26291E+00    |TANGENTE   (SYM)|
|     2          | 5.54476E-04    | 1.38495E+00    |TANGENTE   (SYM)|
---------------------------------------------------------------------
Observations: 4059 réalisations pour ce pas de temps

Critère(s) de convergence atteint(s)

Le résidu de type <RESI_GLOB_RELA> vaut  5.544761761770e-04 au noeud et degré de liberté <1338   
DZ>
Temps CPU consommé dans ce pas de temps    : 1.000 s

* Nombre d'itérations de Newton                     : 3
* Temps total intégration comportement              : 0.000 s (5 intégrations)
* Temps total factorisation matrice                 : 0.000 s (3 factorisations)
* Temps construction second membre                  : 0.000 s
* Temps total résolution K.U=F                      : 1.000 s (3 résolutions)
* Temps assemblage matrice                          : 0.000 s
* Temps autres opérations                           : 0.000 s
Mémoire (Mo) :   300.97 /   300.97 /   215.15 /   201.81 (VmPeak / VmSize / Optimum / Minimum)

Archivage des champs

Champ stocké <DEPL> à l'instant  1.000000000000e-02 pour le numéro d'ordre 1
Champ stocké <SIEF_ELGA> à l'instant  1.000000000000e-02 pour le numéro d'ordre 1
Champ stocké <VARI_ELGA> à l'instant  1.000000000000e-02 pour le numéro d'ordre 1
Champ stocké <COMPORTEMENT> à l'instant  1.000000000000e-02 pour le numéro d'ordre 1
Champ stocké <VITE> à l'instant  1.000000000000e-02 pour le numéro d'ordre 1
Champ stocké <ACCE> à l'instant  1.000000000000e-02 pour le numéro d'ordre 1
Champ stocké <STRX_ELGA> à l'instant  1.000000000000e-02 pour le numéro d'ordre 1
[100%] Instant calculé : 1.00000e-02, dernier instant archivé : 1.00000e-02, au numéro d'ordre :    
1
Temps CPU consommé dans le calcul          : 1.000 s

dont temps CPU "perdu" dans les découpes            : 0.000 s
* Nombre de pas de temps                            : 1
* Nombre d'itérations de Newton                     : 3
* Temps dans l'archivage                            : 0.000 s
* Temps dans le post-traitement                     : 0.000 s
* Temps total intégration comportement              : 0.000 s (5 intégrations)
* Temps total factorisation matrice                 : 0.000 s (3 factorisations)
* Temps construction second membre                  : 0.000 s
* Temps total résolution K.U=F                      : 1.000 s (3 résolutions)
* Temps assemblage matrice                          : 0.000 s
#1      Resolution des systemes lineaires                 CPU (USER+SYST/SYST/ELAPS):      0.08      0.00      1.00
#2      Calculs elementaires et assemblages               CPU (USER+SYST/SYST/ELAPS):      0.03      0.00      0.00
#2      Calculs elementaires et assemblages               CPU (USER+SYST/SYST/ELAPS):      0.00      0.00      0.00
[TIME] DYNA_NON_LINE         : 0.294462 sec
[TIME] tblp    : 0.018459 sec
[TIME] tblp2    : 0.015095 sec
[TIME] aster_module         : 0.007814 sec
[TIME] wake update           : 0.012590 sec
[TIME] force_on_element      : 0.775294 sec
[TIME] distribute_force      : 0.013089 sec
[TIME] save file             : 0.082325 sec
[TIME] DETRUIRE file             : 0.000000 sec
[TIME] TOTAL step time       : 1.219128 sec
--------------------------------------------------
# Mémoire (Mo) :   301.22 /   296.30 /   215.46 /   201.81 (VmPeak / VmSize / Optimum / Minimum)
# Fin commande #0027   user+syst:        1.19s (syst:        0.03s, elaps:        0.00s)
# ----------------------------------------------------------------------------------------------

.. _stg1_txt577
# ----------------------------------------------------------------------------------------------
# Commande #0033 de aster_simulation1.py.changed.py, ligne 577
INCLUDE(ALARME='OUI',
        INFO=0,
        UNITE=93)

Liste des comportements

Affecté sur 2468 éléments
Relation                             : CABLE
Déformation                          : GROT_GDEP
Pas de régularisation visqueuse
Pas de post-traitement à la fin du pas de temps
Nombre total de variables internes   : 1
V1 : VIDE
Affecté sur 120 éléments
Relation                             : ELAS
Déformation                          : PETIT
Pas de régularisation visqueuse
Pas de post-traitement à la fin du pas de temps
Nombre total de variables internes   : 1
V1 : VIDE
Le système linéaire à résoudre a 4395 degrés de liberté:
   - 4347 sont des degrés de liberté
physiques
     (ils sont portés par 1353 noeuds du maillage)
   - 48 sont les couples de paramètres
de Lagrange associés
     aux 24 relations linéaires dualisées.
La matrice est de taille 4395 équations.
  Elle contient 34038 termes non nuls si elle est
symétrique et 63681 termes non nuls si elle n'est pas symétrique.
  Soit un taux de remplissage de  
0.330 %.

 ╔════════════════════════════════════════════════════════════════════════════════════════════════╗
 ║ <A> <MECANONLINE5_21>                                                                          ║
 ║                                                                                                ║
 ║ -> Critère de convergence est lâche !                                                          ║
 ║   -> Risque & Conseil : La valeur de RESI_GLOB_RELA est                                        ║
 ║ supérieure à 10-4.                                                                             ║
 ║      Cela peut nuire à la qualité de la solution. Vous ne vérifiez pas                         ║
 ║ l'équilibre de                                                                                 ║
 ║      manière rigoureuse.                                                                       ║
 ║                                                                                                ║
 ║                                                                                                ║
 ║ Ceci est une alarme. Si vous ne comprenez pas le sens de cette                                 ║
 ║ alarme, vous pouvez obtenir des                                                                ║
 ║ résultats inattendus !                                                                         ║
 ╚════════════════════════════════════════════════════════════════════════════════════════════════╝

Lecture de l'état initial
L'état initial a été récupéré dans la structure de données résultat de nom <00000015> pour le numéro
d'ordre 1 et à l'instant  1.000000000000e-02
Le champ <DEPL> est lu dans ETAT_INIT dans la structure de données résultat donné dans la commande.
Le champ <SIEF_ELGA> est lu dans ETAT_INIT dans la structure de données résultat donné dans la
commande.
Le champ <VARI_ELGA> est lu dans ETAT_INIT dans la structure de données résultat donné dans la
commande.
Le champ <VITE> est lu dans ETAT_INIT dans la structure de données résultat donné dans la commande.
Le champ <ACCE> est lu dans ETAT_INIT dans la structure de données résultat donné dans la commande.
Le champ <STRX_ELGA> est lu dans ETAT_INIT dans la structure de données résultat donné dans la
commande.
Observations: il y aura, au maximum, 4059 observations à chaque instant sélectionné pour cela.

Archivage de l'état initial
Archivage des champs

Champ stocké <DEPL> à l'instant  1.000000000000e-02 pour le numéro d'ordre 0
Champ stocké <SIEF_ELGA> à l'instant  1.000000000000e-02 pour le numéro d'ordre 0
Champ stocké <VARI_ELGA> à l'instant  1.000000000000e-02 pour le numéro d'ordre 0
Champ stocké <COMPORTEMENT> à l'instant  1.000000000000e-02 pour le numéro d'ordre 0
Champ stocké <VITE> à l'instant  1.000000000000e-02 pour le numéro d'ordre 0
Champ stocké <ACCE> à l'instant  1.000000000000e-02 pour le numéro d'ordre 0
Champ stocké <STRX_ELGA> à l'instant  1.000000000000e-02 pour le numéro d'ordre 0
Schéma multi-pas
On n'a pas trouvé l'instant précédent dans la structure de données résultat du
mot-clef ETAT_INIT.
C'est probablement parce qu'il n'y a pas assez d'instants archivés.
On ignore
donc le calcul du second membre pour cet instant.

---------------------------------------------------------------------
Instant de calcul:  2.000000000000e-02

---------------------------------------------------------------------
|     NEWTON     |     RESIDU     |     RESIDU     |     OPTION     |
|    ITERATION   |     RELATIF    |     ABSOLU     |   ASSEMBLAGE   |
|                | RESI_GLOB_RELA | RESI_GLOB_MAXI |(+ TYPE MATRICE)|
---------------------------------------------------------------------
|     0        X | 5.89010E+04  X | 4.80904E+13    |TANGENTE   (SYM)|
|     1        X | 2.49452E+03  X | 2.82300E+13    |TANGENTE   (SYM)|
|     2        X | 4.52818E+02  X | 8.35960E+12    |TANGENTE   (SYM)|
|     3        X | 1.43801E+02  X | 2.47369E+12    |TANGENTE   (SYM)|
|     4        X | 5.48700E+01  X | 7.30785E+11    |TANGENTE   (SYM)|
|     5        X | 2.47853E+01  X | 2.15086E+11    |TANGENTE   (SYM)|
|     6        X | 1.22772E+01  X | 6.27776E+10    |TANGENTE   (SYM)|
|     7        X | 6.28800E+00  X | 1.80111E+10    |TANGENTE   (SYM)|
|     8        X | 3.19678E+00  X | 5.03630E+09    |TANGENTE   (SYM)|
|     9        X | 1.77143E+00  X | 1.66388E+09    |TANGENTE   (SYM)|
|    10        X | 8.21808E-01  X | 5.81946E+08    |TANGENTE   (SYM)|
|    11        X | 5.57190E-01  X | 3.67573E+08    |TANGENTE   (SYM)|
|    12        X | 2.58511E-01  X | 1.73173E+08    |TANGENTE   (SYM)|
|    13        X | 1.26156E-01  X | 8.59949E+07    |TANGENTE   (SYM)|
|    14        X | 6.84341E-02  X | 4.67924E+07    |TANGENTE   (SYM)|
|    15        X | 6.24726E-02  X | 4.27176E+07    |TANGENTE   (SYM)|
|    16        X | 3.47140E-02  X | 2.37361E+07    |TANGENTE   (SYM)|
|    17        X | 3.15153E-02  X | 2.15488E+07    |TANGENTE   (SYM)|
|    18        X | 1.16077E-02  X | 7.93680E+06    |TANGENTE   (SYM)|
|    19        X | 5.52895E-03  X | 3.78042E+06    |TANGENTE   (SYM)|
|    20          | 6.44800E-04    | 4.40881E+05    |TANGENTE   (SYM)|
---------------------------------------------------------------------
Critère(s) de convergence atteint(s)

Le résidu de type <RESI_GLOB_RELA> vaut  6.447995290096e-04 au noeud et degré de liberté <875    
DY>
Temps CPU consommé dans ce pas de temps    : 1.000 s

* Nombre d'itérations de Newton                     : 21
* Temps total intégration comportement              : 0.000 s (23 intégrations)
* Temps total factorisation matrice                 : 1.000 s (21 factorisations)
* Temps construction second membre                  : 0.000 s
* Temps total résolution K.U=F                      : 0.000 s (21 résolutions)
* Temps assemblage matrice                          : 0.000 s
* Temps autres opérations                           : 0.000 s
Mémoire (Mo) :   309.89 /   309.60 /   219.91 /   202.68 (VmPeak / VmSize / Optimum / Minimum)

Archivage des champs

Champ stocké <DEPL> à l'instant  2.000000000000e-02 pour le numéro d'ordre 1
Champ stocké <SIEF_ELGA> à l'instant  2.000000000000e-02 pour le numéro d'ordre 1
Champ stocké <VARI_ELGA> à l'instant  2.000000000000e-02 pour le numéro d'ordre 1
Champ stocké <COMPORTEMENT> à l'instant  2.000000000000e-02 pour le numéro d'ordre 1
Champ stocké <VITE> à l'instant  2.000000000000e-02 pour le numéro d'ordre 1
Champ stocké <ACCE> à l'instant  2.000000000000e-02 pour le numéro d'ordre 1
Champ stocké <STRX_ELGA> à l'instant  2.000000000000e-02 pour le numéro d'ordre 1
[100%] Instant calculé : 2.00000e-02, dernier instant archivé : 2.00000e-02, au numéro d'ordre :    
1
Temps CPU consommé dans le calcul          : 1.000 s

dont temps CPU "perdu" dans les découpes            : 0.000 s
* Nombre de pas de temps                            : 1
* Nombre d'itérations de Newton                     : 21
* Temps dans l'archivage                            : 0.000 s
* Temps dans le post-traitement                     : 0.000 s
* Temps total intégration comportement              : 0.000 s (23 intégrations)
* Temps total factorisation matrice                 : 1.000 s (21 factorisations)
* Temps construction second membre                  : 0.000 s
* Temps total résolution K.U=F                      : 0.000 s (21 résolutions)
* Temps assemblage matrice                          : 0.000 s
#1      Resolution des systemes lineaires                 CPU (USER+SYST/SYST/ELAPS):      0.42      0.00      1.00
#2      Calculs elementaires et assemblages               CPU (USER+SYST/SYST/ELAPS):      0.10      0.00      0.00
#2      Calculs elementaires et assemblages               CPU (USER+SYST/SYST/ELAPS):      0.01      0.00      0.00
Only the first 500 occurrences are checked.
[TIME] DYNA_NON_LINE         : 1.066355 sec
[TIME] tblp    : 0.014209 sec
[TIME] tblp2    : 0.015995 sec
[TIME] aster_module         : 0.000000 sec
[TIME] wake update           : 0.021894 sec
[TIME] force_on_element      : 0.785008 sec
[TIME] distribute_force      : 0.015212 sec
[TIME] save file             : 0.079711 sec
[TIME] DETRUIRE file             : 0.000000 sec
[TIME] TOTAL step time       : 1.998382 sec
--------------------------------------------------
# Mémoire (Mo) :   309.89 /   298.25 /   219.91 /   202.68 (VmPeak / VmSize / Optimum / Minimum)
# Fin commande #0033   user+syst:        1.89s (syst:        0.11s, elaps:        0.00s)
# ----------------------------------------------------------------------------------------------

.. _stg1_txt577
# ----------------------------------------------------------------------------------------------
# Commande #0040 de aster_simulation1.py.changed.py, ligne 577
INCLUDE(ALARME='OUI',
        INFO=0,
        UNITE=93)

Liste des comportements

Affecté sur 2468 éléments
Relation                             : CABLE
Déformation                          : GROT_GDEP
Pas de régularisation visqueuse
Pas de post-traitement à la fin du pas de temps
Nombre total de variables internes   : 1
V1 : VIDE
Affecté sur 120 éléments
Relation                             : ELAS
Déformation                          : PETIT
Pas de régularisation visqueuse
Pas de post-traitement à la fin du pas de temps
Nombre total de variables internes   : 1
V1 : VIDE
Le système linéaire à résoudre a 4395 degrés de liberté:
   - 4347 sont des degrés de liberté
physiques
     (ils sont portés par 1353 noeuds du maillage)
   - 48 sont les couples de paramètres
de Lagrange associés
     aux 24 relations linéaires dualisées.
La matrice est de taille 4395 équations.
  Elle contient 34038 termes non nuls si elle est
symétrique et 63681 termes non nuls si elle n'est pas symétrique.
  Soit un taux de remplissage de  
0.330 %.

 ╔════════════════════════════════════════════════════════════════════════════════════════════════╗
 ║ <A> <MECANONLINE5_21>                                                                          ║
 ║                                                                                                ║
 ║ -> Critère de convergence est lâche !                                                          ║
 ║   -> Risque & Conseil : La valeur de RESI_GLOB_RELA est                                        ║
 ║ supérieure à 10-4.                                                                             ║
 ║      Cela peut nuire à la qualité de la solution. Vous ne vérifiez pas                         ║
 ║ l'équilibre de                                                                                 ║
 ║      manière rigoureuse.                                                                       ║
 ║                                                                                                ║
 ║                                                                                                ║
 ║ Ceci est une alarme. Si vous ne comprenez pas le sens de cette                                 ║
 ║ alarme, vous pouvez obtenir des                                                                ║
 ║ résultats inattendus !                                                                         ║
 ╚════════════════════════════════════════════════════════════════════════════════════════════════╝

Lecture de l'état initial
L'état initial a été récupéré dans la structure de données résultat de nom <0000001b> pour le numéro
d'ordre 1 et à l'instant  2.000000000000e-02
Le champ <DEPL> est lu dans ETAT_INIT dans la structure de données résultat donné dans la commande.
Le champ <SIEF_ELGA> est lu dans ETAT_INIT dans la structure de données résultat donné dans la
commande.
Le champ <VARI_ELGA> est lu dans ETAT_INIT dans la structure de données résultat donné dans la
commande.
Le champ <VITE> est lu dans ETAT_INIT dans la structure de données résultat donné dans la commande.
Le champ <ACCE> est lu dans ETAT_INIT dans la structure de données résultat donné dans la commande.
Le champ <STRX_ELGA> est lu dans ETAT_INIT dans la structure de données résultat donné dans la
commande.
Observations: il y aura, au maximum, 4059 observations à chaque instant sélectionné pour cela.

Archivage de l'état initial
Archivage des champs

Champ stocké <DEPL> à l'instant  2.000000000000e-02 pour le numéro d'ordre 0
Champ stocké <SIEF_ELGA> à l'instant  2.000000000000e-02 pour le numéro d'ordre 0
Champ stocké <VARI_ELGA> à l'instant  2.000000000000e-02 pour le numéro d'ordre 0
Champ stocké <COMPORTEMENT> à l'instant  2.000000000000e-02 pour le numéro d'ordre 0
Champ stocké <VITE> à l'instant  2.000000000000e-02 pour le numéro d'ordre 0
Champ stocké <ACCE> à l'instant  2.000000000000e-02 pour le numéro d'ordre 0
Champ stocké <STRX_ELGA> à l'instant  2.000000000000e-02 pour le numéro d'ordre 0
Schéma multi-pas
On n'a pas trouvé l'instant précédent dans la structure de données résultat du
mot-clef ETAT_INIT.
C'est probablement parce qu'il n'y a pas assez d'instants archivés.
On ignore
donc le calcul du second membre pour cet instant.

---------------------------------------------------------------------
Instant de calcul:  3.000000000000e-02

---------------------------------------------------------------------
|     NEWTON     |     RESIDU     |     RESIDU     |     OPTION     |
|    ITERATION   |     RELATIF    |     ABSOLU     |   ASSEMBLAGE   |
|                | RESI_GLOB_RELA | RESI_GLOB_MAXI |(+ TYPE MATRICE)|
---------------------------------------------------------------------
|     0        X | 8.75129E+00  X | 2.56558E+09    |TANGENTE   (SYM)|
|     1        X | 1.20586E+00  X | 3.88857E+08    |TANGENTE   (SYM)|
|     2        X | 3.70877E-01  X | 1.18554E+08    |TANGENTE   (SYM)|
|     3        X | 2.19120E-01  X | 6.99726E+07    |TANGENTE   (SYM)|
|     4        X | 3.17602E-02  X | 1.01399E+07    |TANGENTE   (SYM)|
|     5        X | 2.75666E-03  X | 8.80136E+05    |TANGENTE   (SYM)|
|     6          | 7.50072E-06    | 2.39480E+03    |TANGENTE   (SYM)|
---------------------------------------------------------------------
Critère(s) de convergence atteint(s)

Le résidu de type <RESI_GLOB_RELA> vaut  7.500720427020e-06 au noeud et degré de liberté <837    
DY>
Temps CPU consommé dans ce pas de temps    : 0.000 s

* Nombre d'itérations de Newton                     : 7
* Temps total intégration comportement              : 0.000 s (9 intégrations)
* Temps total factorisation matrice                 : 0.000 s (7 factorisations)
* Temps construction second membre                  : 0.000 s
* Temps total résolution K.U=F                      : 0.000 s (7 résolutions)
* Temps assemblage matrice                          : 0.000 s
* Temps autres opérations                           : 0.000 s
Mémoire (Mo) :   310.72 /   310.72 /   219.91 /   203.14 (VmPeak / VmSize / Optimum / Minimum)

Archivage des champs

Champ stocké <DEPL> à l'instant  3.000000000000e-02 pour le numéro d'ordre 1
Champ stocké <SIEF_ELGA> à l'instant  3.000000000000e-02 pour le numéro d'ordre 1
Champ stocké <VARI_ELGA> à l'instant  3.000000000000e-02 pour le numéro d'ordre 1
Champ stocké <COMPORTEMENT> à l'instant  3.000000000000e-02 pour le numéro d'ordre 1
Champ stocké <VITE> à l'instant  3.000000000000e-02 pour le numéro d'ordre 1
Champ stocké <ACCE> à l'instant  3.000000000000e-02 pour le numéro d'ordre 1
Champ stocké <STRX_ELGA> à l'instant  3.000000000000e-02 pour le numéro d'ordre 1
[100%] Instant calculé : 3.00000e-02, dernier instant archivé : 3.00000e-02, au numéro d'ordre :    
1
Temps CPU consommé dans le calcul          : 0.000 s

dont temps CPU "perdu" dans les découpes            : 0.000 s
* Nombre de pas de temps                            : 1
* Nombre d'itérations de Newton                     : 7
* Temps dans l'archivage                            : 0.000 s
* Temps dans le post-traitement                     : 0.000 s
* Temps total intégration comportement              : 0.000 s (9 intégrations)
* Temps total factorisation matrice                 : 0.000 s (7 factorisations)
* Temps construction second membre                  : 0.000 s
* Temps total résolution K.U=F                      : 0.000 s (7 résolutions)
* Temps assemblage matrice                          : 0.000 s
#1      Resolution des systemes lineaires                 CPU (USER+SYST/SYST/ELAPS):      0.15      0.00      0.00
#2      Calculs elementaires et assemblages               CPU (USER+SYST/SYST/ELAPS):      0.04      0.00      0.00
#2      Calculs elementaires et assemblages               CPU (USER+SYST/SYST/ELAPS):      0.01      0.00      0.00
Only the first 500 occurrences are checked.
[TIME] DYNA_NON_LINE         : 0.682499 sec
[TIME] tblp    : 0.015967 sec
[TIME] tblp2    : 0.015697 sec
[TIME] aster_module         : 0.006355 sec
[TIME] wake update           : 0.009554 sec
[TIME] force_on_element      : 0.806751 sec
[TIME] distribute_force      : 0.000000 sec
[TIME] save file             : 0.085706 sec
[TIME] DETRUIRE file             : 0.000000 sec
[TIME] TOTAL step time       : 1.622530 sec
--------------------------------------------------
# Mémoire (Mo) :   310.72 /   294.81 /   219.91 /   203.14 (VmPeak / VmSize / Optimum / Minimum)
# Fin commande #0040   user+syst:        1.58s (syst:        0.08s, elaps:        0.00s)
# ----------------------------------------------------------------------------------------------

.. _stg1_txt577
# ----------------------------------------------------------------------------------------------
# Commande #0047 de aster_simulation1.py.changed.py, ligne 577
INCLUDE(ALARME='OUI',
        INFO=0,
        UNITE=93)

Liste des comportements

Affecté sur 2468 éléments
Relation                             : CABLE
Déformation                          : GROT_GDEP
Pas de régularisation visqueuse
Pas de post-traitement à la fin du pas de temps
Nombre total de variables internes   : 1
V1 : VIDE
Affecté sur 120 éléments
Relation                             : ELAS
Déformation                          : PETIT
Pas de régularisation visqueuse
Pas de post-traitement à la fin du pas de temps
Nombre total de variables internes   : 1
V1 : VIDE
Le système linéaire à résoudre a 4395 degrés de liberté:
   - 4347 sont des degrés de liberté
physiques
     (ils sont portés par 1353 noeuds du maillage)
   - 48 sont les couples de paramètres
de Lagrange associés
     aux 24 relations linéaires dualisées.
La matrice est de taille 4395 équations.
  Elle contient 34038 termes non nuls si elle est
symétrique et 63681 termes non nuls si elle n'est pas symétrique.
  Soit un taux de remplissage de  
0.330 %.

 ╔════════════════════════════════════════════════════════════════════════════════════════════════╗
 ║ <A> <MECANONLINE5_21>                                                                          ║
 ║                                                                                                ║
 ║ -> Critère de convergence est lâche !                                                          ║
 ║   -> Risque & Conseil : La valeur de RESI_GLOB_RELA est                                        ║
 ║ supérieure à 10-4.                                                                             ║
 ║      Cela peut nuire à la qualité de la solution. Vous ne vérifiez pas                         ║
 ║ l'équilibre de                                                                                 ║
 ║      manière rigoureuse.                                                                       ║
 ║                                                                                                ║
 ║                                                                                                ║
 ║ Ceci est une alarme. Si vous ne comprenez pas le sens de cette                                 ║
 ║ alarme, vous pouvez obtenir des                                                                ║
 ║ résultats inattendus !                                                                         ║
 ╚════════════════════════════════════════════════════════════════════════════════════════════════╝

Lecture de l'état initial
L'état initial a été récupéré dans la structure de données résultat de nom <00000021> pour le numéro
d'ordre 1 et à l'instant  3.000000000000e-02
Le champ <DEPL> est lu dans ETAT_INIT dans la structure de données résultat donné dans la commande.
Le champ <SIEF_ELGA> est lu dans ETAT_INIT dans la structure de données résultat donné dans la
commande.
Le champ <VARI_ELGA> est lu dans ETAT_INIT dans la structure de données résultat donné dans la
commande.
Le champ <VITE> est lu dans ETAT_INIT dans la structure de données résultat donné dans la commande.
Le champ <ACCE> est lu dans ETAT_INIT dans la structure de données résultat donné dans la commande.
Le champ <STRX_ELGA> est lu dans ETAT_INIT dans la structure de données résultat donné dans la
commande.
Observations: il y aura, au maximum, 4059 observations à chaque instant sélectionné pour cela.

Archivage de l'état initial
Archivage des champs

Champ stocké <DEPL> à l'instant  3.000000000000e-02 pour le numéro d'ordre 0
Champ stocké <SIEF_ELGA> à l'instant  3.000000000000e-02 pour le numéro d'ordre 0
Champ stocké <VARI_ELGA> à l'instant  3.000000000000e-02 pour le numéro d'ordre 0
Champ stocké <COMPORTEMENT> à l'instant  3.000000000000e-02 pour le numéro d'ordre 0
Champ stocké <VITE> à l'instant  3.000000000000e-02 pour le numéro d'ordre 0
Champ stocké <ACCE> à l'instant  3.000000000000e-02 pour le numéro d'ordre 0
Champ stocké <STRX_ELGA> à l'instant  3.000000000000e-02 pour le numéro d'ordre 0
Schéma multi-pas
On n'a pas trouvé l'instant précédent dans la structure de données résultat du
mot-clef ETAT_INIT.
C'est probablement parce qu'il n'y a pas assez d'instants archivés.
On ignore
donc le calcul du second membre pour cet instant.

---------------------------------------------------------------------
Instant de calcul:  4.000000000000e-02

---------------------------------------------------------------------
|     NEWTON     |     RESIDU     |     RESIDU     |     OPTION     |
|    ITERATION   |     RELATIF    |     ABSOLU     |   ASSEMBLAGE   |
|                | RESI_GLOB_RELA | RESI_GLOB_MAXI |(+ TYPE MATRICE)|
---------------------------------------------------------------------
|     0        X | 7.60552E+01  X | 1.40456E+11    |TANGENTE   (SYM)|
|     1        X | 2.04148E+01  X | 4.01274E+10    |TANGENTE   (SYM)|
|     2        X | 5.23178E+00  X | 1.06445E+10    |TANGENTE   (SYM)|
|     3        X | 1.15239E+00  X | 2.38173E+09    |TANGENTE   (SYM)|
|     4        X | 2.18238E-01  X | 4.52318E+08    |TANGENTE   (SYM)|
|     5        X | 4.48293E-02  X | 9.28402E+07    |TANGENTE   (SYM)|
|     6        X | 1.27212E-03  X | 2.63461E+06    |TANGENTE   (SYM)|
|     7          | 6.26102E-05    | 1.29668E+05    |TANGENTE   (SYM)|
---------------------------------------------------------------------
Critère(s) de convergence atteint(s)

Le résidu de type <RESI_GLOB_RELA> vaut  6.261023813599e-05 au noeud et degré de liberté <1167   
DZ>
Temps CPU consommé dans ce pas de temps    : 0.000 s

* Nombre d'itérations de Newton                     : 8
* Temps total intégration comportement              : 0.000 s (10 intégrations)
* Temps total factorisation matrice                 : 0.000 s (8 factorisations)
* Temps construction second membre                  : 0.000 s
* Temps total résolution K.U=F                      : 0.000 s (8 résolutions)
* Temps assemblage matrice                          : 0.000 s
* Temps autres opérations                           : 0.000 s
Mémoire (Mo) :   311.23 /   311.23 /   219.91 /   203.14 (VmPeak / VmSize / Optimum / Minimum)

Archivage des champs

Champ stocké <DEPL> à l'instant  4.000000000000e-02 pour le numéro d'ordre 1
Champ stocké <SIEF_ELGA> à l'instant  4.000000000000e-02 pour le numéro d'ordre 1
Champ stocké <VARI_ELGA> à l'instant  4.000000000000e-02 pour le numéro d'ordre 1
Champ stocké <COMPORTEMENT> à l'instant  4.000000000000e-02 pour le numéro d'ordre 1
Champ stocké <VITE> à l'instant  4.000000000000e-02 pour le numéro d'ordre 1
Champ stocké <ACCE> à l'instant  4.000000000000e-02 pour le numéro d'ordre 1
Champ stocké <STRX_ELGA> à l'instant  4.000000000000e-02 pour le numéro d'ordre 1
[100%] Instant calculé : 4.00000e-02, dernier instant archivé : 4.00000e-02, au numéro d'ordre :    
1
Temps CPU consommé dans le calcul          : 0.000 s

dont temps CPU "perdu" dans les découpes            : 0.000 s
* Nombre de pas de temps                            : 1
* Nombre d'itérations de Newton                     : 8
* Temps dans l'archivage                            : 0.000 s
* Temps dans le post-traitement                     : 0.000 s
* Temps total intégration comportement              : 0.000 s (10 intégrations)
* Temps total factorisation matrice                 : 0.000 s (8 factorisations)
* Temps construction second membre                  : 0.000 s
* Temps total résolution K.U=F                      : 0.000 s (8 résolutions)
* Temps assemblage matrice                          : 0.000 s
#1      Resolution des systemes lineaires                 CPU (USER+SYST/SYST/ELAPS):      0.17      0.00      0.00
#2      Calculs elementaires et assemblages               CPU (USER+SYST/SYST/ELAPS):      0.05      0.00      0.00
#2      Calculs elementaires et assemblages               CPU (USER+SYST/SYST/ELAPS):      0.00      0.00      0.00
Only the first 500 occurrences are checked.
[TIME] DYNA_NON_LINE         : 0.758878 sec
[TIME] tblp    : 0.013758 sec
[TIME] tblp2    : 0.015934 sec
[TIME] aster_module         : 0.011830 sec
[TIME] wake update           : 0.010007 sec
[TIME] force_on_element      : 0.815184 sec
[TIME] distribute_force      : 0.000000 sec
[TIME] save file             : 0.093319 sec
[TIME] DETRUIRE file             : 0.000000 sec
[TIME] TOTAL step time       : 1.718911 sec
--------------------------------------------------
# Mémoire (Mo) :   311.23 /   297.29 /   219.91 /   203.14 (VmPeak / VmSize / Optimum / Minimum)
# Fin commande #0047   user+syst:        1.66s (syst:        0.05s, elaps:        0.00s)
# ----------------------------------------------------------------------------------------------

.. _stg1_txt577
# ----------------------------------------------------------------------------------------------
# Commande #0054 de aster_simulation1.py.changed.py, ligne 577
INCLUDE(ALARME='OUI',
        INFO=0,
        UNITE=93)

#3      Dechargement de la memoire sur disque             CPU (USER+SYST/SYST/ELAPS):      0.01      0.00      0.00
Liste des comportements

Affecté sur 2468 éléments
Relation                             : CABLE
Déformation                          : GROT_GDEP
Pas de régularisation visqueuse
Pas de post-traitement à la fin du pas de temps
Nombre total de variables internes   : 1
V1 : VIDE
Affecté sur 120 éléments
Relation                             : ELAS
Déformation                          : PETIT
Pas de régularisation visqueuse
Pas de post-traitement à la fin du pas de temps
Nombre total de variables internes   : 1
V1 : VIDE
Le système linéaire à résoudre a 4395 degrés de liberté:
   - 4347 sont des degrés de liberté
physiques
     (ils sont portés par 1353 noeuds du maillage)
   - 48 sont les couples de paramètres
de Lagrange associés
     aux 24 relations linéaires dualisées.
La matrice est de taille 4395 équations.
  Elle contient 34038 termes non nuls si elle est
symétrique et 63681 termes non nuls si elle n'est pas symétrique.
  Soit un taux de remplissage de  
0.330 %.

 ╔════════════════════════════════════════════════════════════════════════════════════════════════╗
 ║ <A> <MECANONLINE5_21>                                                                          ║
 ║                                                                                                ║
 ║ -> Critère de convergence est lâche !                                                          ║
 ║   -> Risque & Conseil : La valeur de RESI_GLOB_RELA est                                        ║
 ║ supérieure à 10-4.                                                                             ║
 ║      Cela peut nuire à la qualité de la solution. Vous ne vérifiez pas                         ║
 ║ l'équilibre de                                                                                 ║
 ║      manière rigoureuse.                                                                       ║
 ║                                                                                                ║
 ║                                                                                                ║
 ║ Ceci est une alarme. Si vous ne comprenez pas le sens de cette                                 ║
 ║ alarme, vous pouvez obtenir des                                                                ║
 ║ résultats inattendus !                                                                         ║
[...]
     Peut-être devriez vous exclure certains
noeuds des conditions de contact
     (mots clés SANS_NOEUD et SANS_GROUP_NO).

   * Si le solveur
utilisé est LDLT ou MULT_FRONT, vous pouvez utiliser le solveur MUMPS
     car celui-ci est le seul
à pouvoir factoriser les matrices qui ne sont pas définies positives.

   * Parfois, en parallèle,
le critère de détection de singularité de MUMPS est trop pessimiste ! Il reste néanmoins souvent
   
 possible de faire passer le calcul complet en relaxant ce critère (augmenter de 1 ou 2 la valeur du
mot-clé NPREC) ou
     en le débranchant (valeur du mot-clé NPREC=-1) ou en relançant le calcul sur
moins de processeurs.

   * Il se peut aussi que ce phénomène soit tout à fait normal avec X-FEM si
la fissure passe
     très près d'un noeud.
     Si le nombre de décimales perdues n'est pas trop
grand (max 10 décimales),
     vous pouvez relancer le calcul en augmentant le nombre de décimales
perdues autorisé :
     mot-clé NPREC du mot clé facteur SOLVEUR.
     Sinon, contactez l'équipe de
développement.


|     0        E |              X |                |TANGENTE   (SYM)|
---------------------------------------------------------------------
<Erreur> La matrice du système est singulière

<Action> On essaie de découper le pas de temps.

On utilise la découpe manuelle.
Découpe uniforme à partir de l'instant  1.400000000000e-01 en 4 pas de temps.
(soit un incrément
constant de  5.689893001204e-16)
<Action> On découpe le pas de temps.
Temps CPU consommé dans ce pas de temps    : 0.000 s

* Nombre d'itérations de Newton                     : 1
* Temps total intégration comportement              : 0.000 s (3 intégrations)
* Temps total factorisation matrice                 : 0.000 s (2 factorisations)
* Temps construction second membre                  : 0.000 s
* Temps total résolution K.U=F                      : 0.000 s (1 résolutions)
* Temps assemblage matrice                          : 0.000 s
* Temps autres opérations                           : 0.000 s
Mémoire (Mo) :   315.92 /   314.97 /   222.00 /   204.63 (VmPeak / VmSize / Optimum / Minimum)

---------------------------------------------------------------------
Instant de calcul:  1.400000000000e-01

---------------------------------------------------------------------
|     NEWTON     |     RESIDU     |     RESIDU     |     OPTION     |
|    ITERATION   |     RELATIF    |     ABSOLU     |   ASSEMBLAGE   |
|                | RESI_GLOB_RELA | RESI_GLOB_MAXI |(+ TYPE MATRICE)|
---------------------------------------------------------------------
|     0        X | 1.64372E+24  X | 1.97960E+81    |TANGENTE   (SYM)|
Degré de liberté physique associé au noeud 2 et à la composante DX.

Problème : la matrice est singulière ou presque singulière :
  Lors de la factorisation de la
matrice, on a rencontré un problème
  (pivot nul ou presque nul) à la ligne 7 qui correspond au
degré de liberté donné ci-dessus.

Risques et conseils :
   * Si la ligne correspond a un degré de
liberté physique, il s'agit probablement d'un mouvement
     de corps rigide mal bloqué.
    
Vérifiez les conditions aux limites.
     Si vous faites du contact, il ne faut pas que la structure
ne "tienne" que par le contact.
     Vérifiez également les caractéristiques matériaux (module
d'Young, ...).

   * Si la ligne correspond a un degré de liberté de Lagrange, il s'agit sans doute
d'une condition
     limite redondante.
     En particulier, il se peut que la relation linéaire
surabondante provienne des conditions de contact.
     Peut-être devriez vous exclure certains
noeuds des conditions de contact
     (mots clés SANS_NOEUD et SANS_GROUP_NO).

   * Si le solveur
utilisé est LDLT ou MULT_FRONT, vous pouvez utiliser le solveur MUMPS
     car celui-ci est le seul
à pouvoir factoriser les matrices qui ne sont pas définies positives.

   * Parfois, en parallèle,
le critère de détection de singularité de MUMPS est trop pessimiste ! Il reste néanmoins souvent
   
 possible de faire passer le calcul complet en relaxant ce critère (augmenter de 1 ou 2 la valeur du
mot-clé NPREC) ou
     en le débranchant (valeur du mot-clé NPREC=-1) ou en relançant le calcul sur
moins de processeurs.

   * Il se peut aussi que ce phénomène soit tout à fait normal avec X-FEM si
la fissure passe
     très près d'un noeud.
     Si le nombre de décimales perdues n'est pas trop
grand (max 10 décimales),
     vous pouvez relancer le calcul en augmentant le nombre de décimales
perdues autorisé :
     mot-clé NPREC du mot clé facteur SOLVEUR.
     Sinon, contactez l'équipe de
développement.


|     0        E |              X |                |TANGENTE   (SYM)|
---------------------------------------------------------------------
<Erreur> La matrice du système est singulière

<Action> On essaie de découper le pas de temps.

On utilise la découpe manuelle.
Découpe uniforme à partir de l'instant  1.400000000000e-01 en 4 pas de temps.
(soit un incrément
constant de  1.457167719821e-16)
Le pas de temps minimum  0.000000000000e+00 (SUBD_PAS_MINI) est atteint.
<Action><Échec> Échec dans la tentative de découper le pas de temps.
Temps CPU consommé dans ce pas de temps    : 0.000 s

* Nombre d'itérations de Newton                     : 1
* Temps total intégration comportement              : 0.000 s (3 intégrations)
* Temps total factorisation matrice                 : 0.000 s (2 factorisations)
* Temps construction second membre                  : 0.000 s
* Temps total résolution K.U=F                      : 0.000 s (1 résolutions)
* Temps assemblage matrice                          : 0.000 s
* Temps autres opérations                           : 0.000 s
Mémoire (Mo) :   315.92 /   314.98 /   222.00 /   204.63 (VmPeak / VmSize / Optimum / Minimum)


 ╔════════════════════════════════════════════════════════════════════════════════════════════════╗
 ║ <SolverError> <MECANONLINE9_4>                                                                 ║
 ║                                                                                                ║
 ║ Arrêt pour cause de matrice non inversible.                                                    ║
 ║    La base globale est sauvegardée. Elle contient                                              ║
 ║ les pas archivés avant l'arrêt.                                                                ║
 ║                                                                                                ║
 ║    Conseils :                                                                                  ║
 ║       - Vérifiez vos conditions aux limites.                                                   ║
 ║                                                                                                ║
 ║    - Vérifiez votre modèle, la cohérence des unités.                                           ║
 ║       - Si vous faites du contact, il ne                                                       ║
 ║ faut pas que la structure ne "tienne" que par le contact.                                      ║
 ║                                                                                                ║
 ║       - Parfois, en parallèle, le                                                              ║
 ║ critère de détection de singularité de MUMPS est trop pessimiste ! Il reste néanmoins souvent  ║
 ║                                                                                                ║
 ║        possible de faire passer le calcul complet en relaxant ce critère (augmenter de 1 ou 2  ║
 ║ la valeur du mot-clé NPREC) ou                                                                 ║
 ║         en le débranchant (valeur du mot-clé NPREC=-1) ou en                                   ║
 ║ relançant le calcul sur moins de processeurs.                                                  ║
 ╚════════════════════════════════════════════════════════════════════════════════════════════════╝

Validation du concept '00000069'.


 ╔════════════════════════════════════════════════════════════════════════════════════════════════╗
 ║ <EXCEPTION> <FICHIER_2>                                                                        ║
 ║                                                                                                ║
 ║ L'exécution du fichier 'fort.93' a échoué.                                                     ║
 ║                                                                                                ║
 ║ Détails :                                                                                      ║
 ║                                                                                                ║
 ║     Traceback (most recent call last):                                                         ║
 ║                                                                                                ║
 ║  File                                                                                          ║
 ║ "C:\Users\user\AppData\Local\code_aster\v2024\17.2\lib\aster\code_aster\CodeCommands\include   ║
 ║ py", line 58, in exec_                                                                         ║
 ║     exec(compile(fobj.read(), filename, "exec"), context)                                      ║
 ║   File                                                                                         ║
 ║ "fort.93", line 92, in <module>                                                                ║
 ║     MODELE=model,                                                                              ║
 ║   File                                                                                         ║
 ║ "C:\Users\user\AppData\Local\code_aster\v2024\17                                               ║
 ║ 2\lib\aster\code_aster\Supervis\ExecuteCommand.py", line 183, in run                           ║
 ║     return                                                                                     ║
 ║ cmd.run_(**kwargs)                                                                             ║
 ║   File "C:\Users\user\AppData\Local\code_aster\v2024\17                                        ║
 ║ 2\lib\aster\code_aster\Supervis\ExecuteCommand.py", line 226, in run_                          ║
 ║                                                                                                ║
 ║ self.exec_(keywords)                                                                           ║
 ║   File "C:\Users\user\AppData\Local\code_aster\v2024\17                                        ║
 ║ 2\lib\aster\code_aster\Supervis\ExecuteCommand.py", line 516, in exec_                         ║
 ║                                                                                                ║
 ║ self._call_oper(syntax)                                                                        ║
 ║   File "C:\Users\user\AppData\Local\code_aster\v2024\17                                        ║
 ║ 2\lib\aster\code_aster\Supervis\ExecuteCommand.py", line 282, in _call_oper                    ║
 ║     return                                                                                     ║
 ║ libaster.call_oper(syntax, 0)                                                                  ║
 ║ libaster.SolverError:                                                                          ║
 ║ ╔═════════════════════════════════════════════════════════════════════════════════════════════ ║
 ║ ═══╗                                                                                           ║
 ║  ║ <EXCEPTION> <MECANONLINE9_4>                                                                ║
 ║    ║                                                                                           ║
 ║  ║                                                                                             ║
 ║    ║                                                                                           ║
 ║  ║ Arrêt pour cause de matrice non inversible.                                                 ║
 ║    ║                                                                                           ║
 ║  ║    La base globale est sauvegardée. Elle contient                                           ║
 ║    ║                                                                                           ║
 ║  ║ les pas archivés avant l'arrêt.                                                             ║
 ║    ║                                                                                           ║
 ║  ║                                                                                             ║
 ║    ║                                                                                           ║
 ║  ║    Conseils :                                                                               ║
 ║    ║                                                                                           ║
 ║  ║       - Vérifiez vos conditions aux limites.                                                ║
 ║    ║                                                                                           ║
 ║  ║                                                                                             ║
 ║    ║                                                                                           ║
 ║  ║    - Vérifiez votre modèle, la cohérence des unités.                                        ║
 ║    ║                                                                                           ║
 ║  ║       - Si vous faites du contact, il ne                                                    ║
 ║    ║                                                                                           ║
 ║  ║ faut pas que la structure ne "tienne" que par le contact.                                   ║
 ║    ║                                                                                           ║
 ║  ║                                                                                             ║
 ║    ║                                                                                           ║
 ║  ║       - Parfois, en parallèle, le                                                           ║
 ║    ║                                                                                           ║
 ║  ║ critère de détection de singularité de MUMPS est trop pessimiste ! Il reste néanmoins       ║
 ║ souvent  ║                                                                                     ║
 ║  ║                                                                                             ║
 ║    ║                                                                                           ║
 ║  ║        possible de faire passer le calcul complet en relaxant ce critère (augmenter de 1 ou ║
 ║ 2  ║                                                                                           ║
 ║  ║ la valeur du mot-clé NPREC) ou                                                              ║
 ║    ║                                                                                           ║
 ║  ║         en le débranchant (valeur du mot-clé NPREC=-1) ou en                                ║
 ║    ║                                                                                           ║
 ║  ║ relançant le calcul sur moins de processeurs.                                               ║
 ║    ║                                                                                           ║
 ║ ╚═════════════════════════════════════════════════════════════════════════════════════════════ ║
 ║ ═══╝                                                                                           ║
 ╚════════════════════════════════════════════════════════════════════════════════════════════════╝

Only the first 500 occurrences are checked.
# Mémoire (Mo) :   315.92 /   301.10 /   222.00 /   204.63 (VmPeak / VmSize / Optimum / Minimum)
# Fin commande #0124   user+syst:       15.20s (syst:        4.33s, elaps:        0.00s)
# ----------------------------------------------------------------------------------------------

Exception: Trying to close the database after an uncaught exception...


Publishing the result of the current command INCLUDE...

No database in results, objects not saved on processor #0

 ╔════════════════════════════════════════════════════════════════════════════════════════════════╗
 ║ <I> <CATAMESS_89>                                                                              ║
 ║                                                                                                ║
 ║ Liste des alarmes émises lors de l'exécution du calcul.                                        ║
 ║                                                                                                ║
 ║     Les alarmes que vous avez                                                                  ║
 ║ choisies d'ignorer sont précédées de (*).                                                      ║
 ║     Nombre d'occurrences pour chacune des alarmes :                                            ║
 ║                                                                                                ║
 ║           MECANONLINE5_21      émise   15 fois                                                 ║
 ║            MODELISA4_8          émise    1                                                     ║
 ║ fois                                                                                           ║
 ║            MODELISA8_13         émise  432 fois                                                ║
 ║        (*) SUPERVIS_25          émise                                                          ║
 ║ 17 fois                                                                                        ║
 ╚════════════════════════════════════════════════════════════════════════════════════════════════╝

<I> <FIN> ARRET NORMAL DANS "FIN" PAR APPEL A "JEFINI".
  
 <I> <FIN> MEMOIRE JEVEUX MINIMALE REQUISE POUR L'EXECUTION :                     204.63 Mo
 <I> <FIN> MEMOIRE JEVEUX OPTIMALE REQUISE POUR L'EXECUTION :                     222.00 Mo
 <I> <FIN> MAXIMUM DE MEMOIRE UTILISEE PAR LE PROCESSUS LORS DE L'EXECUTION :     315.92 Mo
  
 <I>       FERMETURE DES BASES EFFECTUEE
  
   STATISTIQUES CONCERNANT L'ALLOCATION DYNAMIQUE :
     TAILLE CUMULEE MAXIMUM            :                  222  Mo.
     TAILLE CUMULEE LIBEREE            :                 5637  Mo.
     NOMBRE TOTAL D'ALLOCATIONS        :              5149239
     NOMBRE TOTAL DE LIBERATIONS       :              5146586
     APPELS AU MECANISME DE LIBERATION :                    2
     TAILLE MEMOIRE CUMULEE RECUPEREE  :                   83  Mo.
     VOLUME DES LECTURES               :                    0  Mo.
     VOLUME DES ECRITURES              :                  288  Mo.
  
   MEMOIRE JEVEUX MINIMALE REQUISE POUR L'EXECUTION :     204.63 Mo
     - IMPOSE DE NOMBREUX ACCES DISQUE
     - RALENTIT LA VITESSE D'EXECUTION
   MEMOIRE JEVEUX OPTIMALE REQUISE POUR L'EXECUTION :     222.00 Mo
     - LIMITE LES ACCES DISQUE
     - AMELIORE LA VITESSE D'EXECUTION
   MAXIMUM DE MEMOIRE UTILISEE PAR LE PROCESSUS     :     315.92 Mo
     - COMPREND LA MEMOIRE CONSOMMEE PAR  JEVEUX, 
       LE SUPERVISEUR PYTHON, LES LIBRAIRIES EXTERNES
  
 <I>       FIN D'EXECUTION LE : MA-24-MARS-2026 15:38:49

EXECUTION_CODE_ASTER_EXIT_4816=0



------------------------------------------------------------
--- DIAGNOSTIC JOB : <A>_ALARM
------------------------------------------------------------

